
OS:Version,
  {5086ac0a-e2ff-417b-81db-5b977907f84a}, !- Handle
  2.6.0;                                  !- Version Identifier

OS:Rendering:Color,
  {6378dbec-eb36-48ce-bad0-f6c4e6eb1a52}, !- Handle
  Rendering Color 1,                      !- Name
  230,                                    !- Rendering Red Value
  157,                                    !- Rendering Green Value
  120;                                    !- Rendering Blue Value

OS:DefaultScheduleSet,
  {bd248468-2b4d-4fda-84f6-16603de1c13b}, !- Handle
  189.1-2009 - Office - BreakRoom - CZ1-3 Schedule Set, !- Name
  ,                                       !- Hours of Operation Schedule Name
  ,                                       !- Number of People Schedule Name
  ,                                       !- People Activity Level Schedule Name
  ,                                       !- Lighting Schedule Name
  ,                                       !- Electric Equipment Schedule Name
  ,                                       !- Gas Equipment Schedule Name
  ,                                       !- Hot Water Equipment Schedule Name
  ,                                       !- Infiltration Schedule Name
  ,                                       !- Steam Equipment Schedule Name
  ;                                       !- Other Equipment Schedule Name

OS:ScheduleTypeLimits,
  {46639c15-3d9e-445e-bf44-62058e5636d7}, ! Handle
  Fraction,                               ! Name
  0,                                      ! Lower Limit Value
  1,                                      ! Upper Limit Value
  CONTINUOUS;                             ! Numeric Type

OS:DesignSpecification:OutdoorAir,
  {275b2507-2551-4c6b-9576-0694f401735c}, !- Handle
  189.1-2009 - Office - BreakRoom - CZ1-3 Ventilation, !- Name
  Sum,                                    !- Outdoor Air Method
  0.007079211648,                         !- Outdoor Air Flow per Person {m3/s-person}
  ,                                       !- Outdoor Air Flow per Floor Area {m3/s-m2}
  ,                                       !- Outdoor Air Flow Rate {m3/s}
  ,                                       !- Outdoor Air Flow Air Changes per Hour {1/hr}
  ;                                       !- Outdoor Air Flow Rate Fraction Schedule Name

OS:ScheduleTypeLimits,
  {115aba64-18e9-477b-9f56-bc49f71a3d65}, !- Handle
  ActivityLevel,                          !- Name
  0,                                      !- Lower Limit Value
  ,                                       !- Upper Limit Value
  Continuous,                             !- Numeric Type
  ActivityLevel;                          !- Unit Type

OS:ThermostatSetpoint:DualSetpoint,
  {4c10e941-222f-4ce6-97c2-167d512784bb}, !- Handle
  189.1-2009 - Office - BreakRoom - CZ1-3 Thermostat, !- Name
  ,                                       !- Heating Setpoint Temperature Schedule Name
  ;                                       !- Cooling Setpoint Temperature Schedule Name

OS:ScheduleTypeLimits,
  {fe175268-292a-4433-a896-b1196b2fabee}, !- Handle
  Temperature 36,                         !- Name
  ,                                       !- Lower Limit Value
  ,                                       !- Upper Limit Value
  Continuous,                             !- Numeric Type
  Temperature;                            !- Unit Type

OS:ScheduleTypeLimits,
  {39bcb3ad-c249-4e1e-963c-be23295372e4}, !- Handle
  Temperature 37,                         !- Name
  ,                                       !- Lower Limit Value
  ,                                       !- Upper Limit Value
  Continuous,                             !- Numeric Type
  Temperature;                            !- Unit Type

OS:Rendering:Color,
  {ba1f766f-181c-458c-9ef5-bb86302e4a6d}, !- Handle
  Rendering Color 2,                      !- Name
  120,                                    !- Rendering Red Value
  230,                                    !- Rendering Green Value
  199;                                    !- Rendering Blue Value

OS:DefaultScheduleSet,
  {5d322b6b-cb8d-45a5-926d-f9c72152fa67}, !- Handle
  189.1-2009 - Office - ClosedOffice - CZ1-3 Schedule Set, !- Name
  ,                                       !- Hours of Operation Schedule Name
  ,                                       !- Number of People Schedule Name
  ,                                       !- People Activity Level Schedule Name
  ,                                       !- Lighting Schedule Name
  ,                                       !- Electric Equipment Schedule Name
  ,                                       !- Gas Equipment Schedule Name
  ,                                       !- Hot Water Equipment Schedule Name
  ,                                       !- Infiltration Schedule Name
  ,                                       !- Steam Equipment Schedule Name
  ;                                       !- Other Equipment Schedule Name

OS:DesignSpecification:OutdoorAir,
  {1bd42bc7-ba48-4bab-8bd8-c05a26eb63e0}, !- Handle
  189.1-2009 - Office - ClosedOffice - CZ1-3 Ventilation, !- Name
  Sum,                                    !- Outdoor Air Method
  0.009438948864,                         !- Outdoor Air Flow per Person {m3/s-person}
  ,                                       !- Outdoor Air Flow per Floor Area {m3/s-m2}
  ,                                       !- Outdoor Air Flow Rate {m3/s}
  ,                                       !- Outdoor Air Flow Air Changes per Hour {1/hr}
  ;                                       !- Outdoor Air Flow Rate Fraction Schedule Name

OS:ThermostatSetpoint:DualSetpoint,
  {9e972440-d6e2-4d12-af61-30e49f26d1f6}, !- Handle
  189.1-2009 - Office - ClosedOffice - CZ1-3 Thermostat, !- Name
  ,                                       !- Heating Setpoint Temperature Schedule Name
  ;                                       !- Cooling Setpoint Temperature Schedule Name

OS:Rendering:Color,
  {6ead6b3f-309f-49fb-902f-df18e88201ae}, !- Handle
  Rendering Color 3,                      !- Name
  230,                                    !- Rendering Red Value
  196,                                    !- Rendering Green Value
  120;                                    !- Rendering Blue Value

OS:DefaultScheduleSet,
  {3e0b0dad-0c6c-44d2-adc1-f951602a0e11}, !- Handle
  189.1-2009 - Office - Conference - CZ1-3 Schedule Set, !- Name
  ,                                       !- Hours of Operation Schedule Name
  ,                                       !- Number of People Schedule Name
  ,                                       !- People Activity Level Schedule Name
  ,                                       !- Lighting Schedule Name
  ,                                       !- Electric Equipment Schedule Name
  ,                                       !- Gas Equipment Schedule Name
  ,                                       !- Hot Water Equipment Schedule Name
  ,                                       !- Infiltration Schedule Name
  ,                                       !- Steam Equipment Schedule Name
  ;                                       !- Other Equipment Schedule Name

OS:DesignSpecification:OutdoorAir,
  {efbb3cc1-cd4b-4dc5-8eb7-eebc742afbdc}, !- Handle
  189.1-2009 - Office - Conference - CZ1-3 Ventilation, !- Name
  Sum,                                    !- Outdoor Air Method
  0.009438948864,                         !- Outdoor Air Flow per Person {m3/s-person}
  ,                                       !- Outdoor Air Flow per Floor Area {m3/s-m2}
  ,                                       !- Outdoor Air Flow Rate {m3/s}
  ,                                       !- Outdoor Air Flow Air Changes per Hour {1/hr}
  ;                                       !- Outdoor Air Flow Rate Fraction Schedule Name

OS:ThermostatSetpoint:DualSetpoint,
  {7691aa3c-0f51-4b50-af2b-5cfffd865bd1}, !- Handle
  189.1-2009 - Office - Conference - CZ1-3 Thermostat, !- Name
  ,                                       !- Heating Setpoint Temperature Schedule Name
  ;                                       !- Cooling Setpoint Temperature Schedule Name

OS:Rendering:Color,
  {f2532a3e-1ca1-4db9-998c-227431dfa48e}, !- Handle
  Rendering Color 4,                      !- Name
  169,                                    !- Rendering Red Value
  31,                                     !- Rendering Green Value
  31;                                     !- Rendering Blue Value

OS:DefaultScheduleSet,
  {93b960b9-288d-4e3e-9dbf-401e526d7881}, !- Handle
  189.1-2009 - Office - Corridor - CZ1-3 Schedule Set, !- Name
  ,                                       !- Hours of Operation Schedule Name
  ,                                       !- Number of People Schedule Name
  ,                                       !- People Activity Level Schedule Name
  ,                                       !- Lighting Schedule Name
  ,                                       !- Electric Equipment Schedule Name
  ,                                       !- Gas Equipment Schedule Name
  ,                                       !- Hot Water Equipment Schedule Name
  ,                                       !- Infiltration Schedule Name
  ,                                       !- Steam Equipment Schedule Name
  ;                                       !- Other Equipment Schedule Name

OS:DesignSpecification:OutdoorAir,
  {92dce51d-bb1c-4f88-86ed-bc5545e26f09}, !- Handle
  189.1-2009 - Office - Corridor - CZ1-3 Ventilation, !- Name
  Sum,                                    !- Outdoor Air Method
  ,                                       !- Outdoor Air Flow per Person {m3/s-person}
  0.000254,                               !- Outdoor Air Flow per Floor Area {m3/s-m2}
  ,                                       !- Outdoor Air Flow Rate {m3/s}
  ,                                       !- Outdoor Air Flow Air Changes per Hour {1/hr}
  ;                                       !- Outdoor Air Flow Rate Fraction Schedule Name

OS:ThermostatSetpoint:DualSetpoint,
  {f1f0200e-b39d-4793-8cb4-2c307199de15}, !- Handle
  189.1-2009 - Office - Corridor - CZ1-3 Thermostat, !- Name
  ,                                       !- Heating Setpoint Temperature Schedule Name
  ;                                       !- Cooling Setpoint Temperature Schedule Name

OS:Rendering:Color,
  {1f1f3d07-6d31-4834-9dcb-30d44551a6f6}, !- Handle
  Rendering Color 5,                      !- Name
  41,                                     !- Rendering Red Value
  31,                                     !- Rendering Green Value
  169;                                    !- Rendering Blue Value

OS:DefaultScheduleSet,
  {d0496fd5-d8fa-48c2-a08b-ee1a622b5531}, !- Handle
  189.1-2009 - Office - Elec/MechRoom - CZ1-3 Schedule Set, !- Name
  ,                                       !- Hours of Operation Schedule Name
  ,                                       !- Number of People Schedule Name
  ,                                       !- People Activity Level Schedule Name
  ,                                       !- Lighting Schedule Name
  ,                                       !- Electric Equipment Schedule Name
  ,                                       !- Gas Equipment Schedule Name
  ,                                       !- Hot Water Equipment Schedule Name
  ,                                       !- Infiltration Schedule Name
  ,                                       !- Steam Equipment Schedule Name
  ;                                       !- Other Equipment Schedule Name

OS:DesignSpecification:OutdoorAir,
  {890f4b3a-8ddf-43e6-aa80-3b305b723267}, !- Handle
  189.1-2009 - Office - Elec/MechRoom - CZ1-3 Ventilation, !- Name
  Sum,                                    !- Outdoor Air Method
  0.009438948864,                         !- Outdoor Air Flow per Person {m3/s-person}
  ,                                       !- Outdoor Air Flow per Floor Area {m3/s-m2}
  ,                                       !- Outdoor Air Flow Rate {m3/s}
  ,                                       !- Outdoor Air Flow Air Changes per Hour {1/hr}
  ;                                       !- Outdoor Air Flow Rate Fraction Schedule Name

OS:ThermostatSetpoint:DualSetpoint,
  {959d0b30-4f5d-43cc-a32d-27b3efb6d237}, !- Handle
  189.1-2009 - Office - Elec/MechRoom - CZ1-3 Thermostat, !- Name
  ,                                       !- Heating Setpoint Temperature Schedule Name
  ;                                       !- Cooling Setpoint Temperature Schedule Name

OS:Rendering:Color,
  {e45237c0-fb92-4607-bd04-df09fc52bb34}, !- Handle
  Rendering Color 6,                      !- Name
  41,                                     !- Rendering Red Value
  31,                                     !- Rendering Green Value
  169;                                    !- Rendering Blue Value

OS:DefaultScheduleSet,
  {5622bbb1-9a77-45dc-a18f-dc497a8a33f2}, !- Handle
  189.1-2009 - Office - IT_Room - CZ1-3 Schedule Set, !- Name
  ,                                       !- Hours of Operation Schedule Name
  ,                                       !- Number of People Schedule Name
  ,                                       !- People Activity Level Schedule Name
  ,                                       !- Lighting Schedule Name
  ,                                       !- Electric Equipment Schedule Name
  ,                                       !- Gas Equipment Schedule Name
  ,                                       !- Hot Water Equipment Schedule Name
  ,                                       !- Infiltration Schedule Name
  ,                                       !- Steam Equipment Schedule Name
  ;                                       !- Other Equipment Schedule Name

OS:DesignSpecification:OutdoorAir,
  {514bdf65-6520-4040-8ce1-c99180e69ac4}, !- Handle
  189.1-2009 - Office - IT_Room - CZ1-3 Ventilation, !- Name
  Sum,                                    !- Outdoor Air Method
  ,                                       !- Outdoor Air Flow per Person {m3/s-person}
  0.000254,                               !- Outdoor Air Flow per Floor Area {m3/s-m2}
  ,                                       !- Outdoor Air Flow Rate {m3/s}
  ,                                       !- Outdoor Air Flow Air Changes per Hour {1/hr}
  ;                                       !- Outdoor Air Flow Rate Fraction Schedule Name

OS:ThermostatSetpoint:DualSetpoint,
  {c45f9b47-32fa-429c-9130-e959ffd40036}, !- Handle
  189.1-2009 - Office - IT_Room - CZ1-3 Thermostat, !- Name
  ,                                       !- Heating Setpoint Temperature Schedule Name
  ;                                       !- Cooling Setpoint Temperature Schedule Name

OS:Rendering:Color,
  {f2ffe214-9259-4b2f-8e48-35543d5fba21}, !- Handle
  Rendering Color 7,                      !- Name
  230,                                    !- Rendering Red Value
  157,                                    !- Rendering Green Value
  120;                                    !- Rendering Blue Value

OS:DefaultScheduleSet,
  {ccdf5295-f0d4-4f6c-bf0b-ec05e68ff062}, !- Handle
  189.1-2009 - Office - Lobby - CZ1-3 Schedule Set, !- Name
  ,                                       !- Hours of Operation Schedule Name
  ,                                       !- Number of People Schedule Name
  ,                                       !- People Activity Level Schedule Name
  ,                                       !- Lighting Schedule Name
  ,                                       !- Electric Equipment Schedule Name
  ,                                       !- Gas Equipment Schedule Name
  ,                                       !- Hot Water Equipment Schedule Name
  ,                                       !- Infiltration Schedule Name
  ,                                       !- Steam Equipment Schedule Name
  ;                                       !- Other Equipment Schedule Name

OS:DesignSpecification:OutdoorAir,
  {f86340de-6056-4920-a25b-2457bbcdf377}, !- Handle
  189.1-2009 - Office - Lobby - CZ1-3 Ventilation, !- Name
  Sum,                                    !- Outdoor Air Method
  0.007079211648,                         !- Outdoor Air Flow per Person {m3/s-person}
  ,                                       !- Outdoor Air Flow per Floor Area {m3/s-m2}
  ,                                       !- Outdoor Air Flow Rate {m3/s}
  ,                                       !- Outdoor Air Flow Air Changes per Hour {1/hr}
  ;                                       !- Outdoor Air Flow Rate Fraction Schedule Name

OS:ThermostatSetpoint:DualSetpoint,
  {d3694f32-dbe7-4f34-8a96-56cd4db5d3ce}, !- Handle
  189.1-2009 - Office - Lobby - CZ1-3 Thermostat, !- Name
  ,                                       !- Heating Setpoint Temperature Schedule Name
  ;                                       !- Cooling Setpoint Temperature Schedule Name

OS:Rendering:Color,
  {a2c602da-91b1-4db5-892c-de58e18075ce}, !- Handle
  Rendering Color 8,                      !- Name
  120,                                    !- Rendering Red Value
  230,                                    !- Rendering Green Value
  199;                                    !- Rendering Blue Value

OS:DefaultScheduleSet,
  {099b25e9-1f86-4748-926f-b2984180c55b}, !- Handle
  189.1-2009 - Office - OpenOffice - CZ1-3 Schedule Set, !- Name
  ,                                       !- Hours of Operation Schedule Name
  ,                                       !- Number of People Schedule Name
  ,                                       !- People Activity Level Schedule Name
  ,                                       !- Lighting Schedule Name
  ,                                       !- Electric Equipment Schedule Name
  ,                                       !- Gas Equipment Schedule Name
  ,                                       !- Hot Water Equipment Schedule Name
  ,                                       !- Infiltration Schedule Name
  ,                                       !- Steam Equipment Schedule Name
  ;                                       !- Other Equipment Schedule Name

OS:DesignSpecification:OutdoorAir,
  {1c52920b-7e50-4069-8337-699cc915ed7c}, !- Handle
  189.1-2009 - Office - OpenOffice - CZ1-3 Ventilation, !- Name
  Sum,                                    !- Outdoor Air Method
  0.009438948864,                         !- Outdoor Air Flow per Person {m3/s-person}
  ,                                       !- Outdoor Air Flow per Floor Area {m3/s-m2}
  ,                                       !- Outdoor Air Flow Rate {m3/s}
  ,                                       !- Outdoor Air Flow Air Changes per Hour {1/hr}
  ;                                       !- Outdoor Air Flow Rate Fraction Schedule Name

OS:ThermostatSetpoint:DualSetpoint,
  {fe91686e-dd84-4b38-b5b8-54dfcf8560ce}, !- Handle
  189.1-2009 - Office - OpenOffice - CZ1-3 Thermostat, !- Name
  ,                                       !- Heating Setpoint Temperature Schedule Name
  ;                                       !- Cooling Setpoint Temperature Schedule Name

OS:Building,
  {161a51f0-9700-4aa1-8ba8-f2513d0eecae}, !- Handle
  ANZEH1,                                 !- Name
  ,                                       !- Building Sector Type
  ,                                       !- North Axis {deg}
  ,                                       !- Nominal Floor to Floor Height {m}
  ,                                       !- Space Type Name
  ,                                       !- Default Construction Set Name
  ,                                       !- Default Schedule Set Name
  ,                                       !- Standards Number of Stories
  ,                                       !- Standards Number of Above Ground Stories
  ,                                       !- Standards Building Type
  ,                                       !- Standards Number of Living Units
  ,                                       !- Relocatable
  ;                                       !- Nominal Floor to Ceiling Height {m}

OS:Rendering:Color,
  {15265381-e5e1-46ed-aa83-2328823b2654}, !- Handle
  Rendering Color 9,                      !- Name
  41,                                     !- Rendering Red Value
  31,                                     !- Rendering Green Value
  169;                                    !- Rendering Blue Value

OS:DefaultScheduleSet,
  {4c0775f5-9288-426b-9158-ad3b65f7b409}, !- Handle
  189.1-2009 - Office - PrintRoom - CZ1-3 Schedule Set, !- Name
  ,                                       !- Hours of Operation Schedule Name
  ,                                       !- Number of People Schedule Name
  ,                                       !- People Activity Level Schedule Name
  ,                                       !- Lighting Schedule Name
  ,                                       !- Electric Equipment Schedule Name
  ,                                       !- Gas Equipment Schedule Name
  ,                                       !- Hot Water Equipment Schedule Name
  ,                                       !- Infiltration Schedule Name
  ,                                       !- Steam Equipment Schedule Name
  ;                                       !- Other Equipment Schedule Name

OS:DesignSpecification:OutdoorAir,
  {58570dd6-8afc-4dcd-b069-b470e899067e}, !- Handle
  189.1-2009 - Office - PrintRoom - CZ1-3 Ventilation, !- Name
  Sum,                                    !- Outdoor Air Method
  ,                                       !- Outdoor Air Flow per Person {m3/s-person}
  0.000254,                               !- Outdoor Air Flow per Floor Area {m3/s-m2}
  ,                                       !- Outdoor Air Flow Rate {m3/s}
  ,                                       !- Outdoor Air Flow Air Changes per Hour {1/hr}
  ;                                       !- Outdoor Air Flow Rate Fraction Schedule Name

OS:ThermostatSetpoint:DualSetpoint,
  {6ee3f455-6c41-4bb4-b9a1-f1f1b61abb75}, !- Handle
  189.1-2009 - Office - PrintRoom - CZ1-3 Thermostat, !- Name
  ,                                       !- Heating Setpoint Temperature Schedule Name
  ;                                       !- Cooling Setpoint Temperature Schedule Name

OS:Rendering:Color,
  {dd022378-ee6c-48ca-9a39-68a7adc126bd}, !- Handle
  Rendering Color 10,                     !- Name
  169,                                    !- Rendering Red Value
  169,                                    !- Rendering Green Value
  31;                                     !- Rendering Blue Value

OS:DefaultScheduleSet,
  {3236b5e2-ab04-499e-83ff-49911d42d0b9}, !- Handle
  189.1-2009 - Office - Restroom - CZ1-3 Schedule Set, !- Name
  ,                                       !- Hours of Operation Schedule Name
  ,                                       !- Number of People Schedule Name
  ,                                       !- People Activity Level Schedule Name
  ,                                       !- Lighting Schedule Name
  ,                                       !- Electric Equipment Schedule Name
  ,                                       !- Gas Equipment Schedule Name
  ,                                       !- Hot Water Equipment Schedule Name
  ,                                       !- Infiltration Schedule Name
  ,                                       !- Steam Equipment Schedule Name
  ;                                       !- Other Equipment Schedule Name

OS:DesignSpecification:OutdoorAir,
  {bde92cb9-71ea-4377-ba7a-5ec383b04669}, !- Handle
  189.1-2009 - Office - Restroom - CZ1-3 Ventilation, !- Name
  Sum,                                    !- Outdoor Air Method
  ,                                       !- Outdoor Air Flow per Person {m3/s-person}
  0.0048768,                              !- Outdoor Air Flow per Floor Area {m3/s-m2}
  ,                                       !- Outdoor Air Flow Rate {m3/s}
  ,                                       !- Outdoor Air Flow Air Changes per Hour {1/hr}
  ;                                       !- Outdoor Air Flow Rate Fraction Schedule Name

OS:ThermostatSetpoint:DualSetpoint,
  {5d77807c-6525-4ff5-96b0-3bae48c5bf5e}, !- Handle
  189.1-2009 - Office - Restroom - CZ1-3 Thermostat, !- Name
  ,                                       !- Heating Setpoint Temperature Schedule Name
  ;                                       !- Cooling Setpoint Temperature Schedule Name

OS:Rendering:Color,
  {a3d4d349-0de7-4e4f-ac21-f62447e12181}, !- Handle
  Rendering Color 11,                     !- Name
  230,                                    !- Rendering Red Value
  157,                                    !- Rendering Green Value
  120;                                    !- Rendering Blue Value

OS:DefaultScheduleSet,
  {f57f9d59-d62c-4160-a1c2-840b96adae39}, !- Handle
  189.1-2009 - Office - Stair - CZ1-3 Schedule Set, !- Name
  ,                                       !- Hours of Operation Schedule Name
  ,                                       !- Number of People Schedule Name
  ,                                       !- People Activity Level Schedule Name
  ,                                       !- Lighting Schedule Name
  ,                                       !- Electric Equipment Schedule Name
  ,                                       !- Gas Equipment Schedule Name
  ,                                       !- Hot Water Equipment Schedule Name
  ,                                       !- Infiltration Schedule Name
  ,                                       !- Steam Equipment Schedule Name
  ;                                       !- Other Equipment Schedule Name

OS:DesignSpecification:OutdoorAir,
  {874a5fad-e186-4960-9b2a-0fba73083a6e}, !- Handle
  189.1-2009 - Office - Stair - CZ1-3 Ventilation, !- Name
  Sum,                                    !- Outdoor Air Method
  ,                                       !- Outdoor Air Flow per Person {m3/s-person}
  0.000254,                               !- Outdoor Air Flow per Floor Area {m3/s-m2}
  ,                                       !- Outdoor Air Flow Rate {m3/s}
  ,                                       !- Outdoor Air Flow Air Changes per Hour {1/hr}
  ;                                       !- Outdoor Air Flow Rate Fraction Schedule Name

OS:ThermostatSetpoint:DualSetpoint,
  {e34a4858-8ca9-4b53-8502-c5073f2911c3}, !- Handle
  189.1-2009 - Office - Stair - CZ1-3 Thermostat, !- Name
  ,                                       !- Heating Setpoint Temperature Schedule Name
  ;                                       !- Cooling Setpoint Temperature Schedule Name

OS:Rendering:Color,
  {abf602e1-5689-4887-bc4d-e6f2fc2451e4}, !- Handle
  Rendering Color 12,                     !- Name
  120,                                    !- Rendering Red Value
  149,                                    !- Rendering Green Value
  230;                                    !- Rendering Blue Value

OS:DefaultScheduleSet,
  {345f6ea5-c8b7-4c3e-9b1d-60fc7281be1e}, !- Handle
  189.1-2009 - Office - Storage - CZ1-3 Schedule Set, !- Name
  ,                                       !- Hours of Operation Schedule Name
  ,                                       !- Number of People Schedule Name
  ,                                       !- People Activity Level Schedule Name
  ,                                       !- Lighting Schedule Name
  ,                                       !- Electric Equipment Schedule Name
  ,                                       !- Gas Equipment Schedule Name
  ,                                       !- Hot Water Equipment Schedule Name
  ,                                       !- Infiltration Schedule Name
  ,                                       !- Steam Equipment Schedule Name
  ;                                       !- Other Equipment Schedule Name

OS:DesignSpecification:OutdoorAir,
  {4b03ea2e-ed8e-4436-b327-2f6e8ab4b5fb}, !- Handle
  189.1-2009 - Office - Storage - CZ1-3 Ventilation, !- Name
  Sum,                                    !- Outdoor Air Method
  ,                                       !- Outdoor Air Flow per Person {m3/s-person}
  0.000254,                               !- Outdoor Air Flow per Floor Area {m3/s-m2}
  ,                                       !- Outdoor Air Flow Rate {m3/s}
  ,                                       !- Outdoor Air Flow Air Changes per Hour {1/hr}
  ;                                       !- Outdoor Air Flow Rate Fraction Schedule Name

OS:ThermostatSetpoint:DualSetpoint,
  {7666b674-d1ef-4103-b26d-0c8dbbbfc8b7}, !- Handle
  189.1-2009 - Office - Storage - CZ1-3 Thermostat, !- Name
  ,                                       !- Heating Setpoint Temperature Schedule Name
  ;                                       !- Cooling Setpoint Temperature Schedule Name

OS:Rendering:Color,
  {5d8d43b8-7e07-431a-89e4-e65ffc0a4f50}, !- Handle
  Rendering Color 13,                     !- Name
  230,                                    !- Rendering Red Value
  157,                                    !- Rendering Green Value
  120;                                    !- Rendering Blue Value

OS:DefaultScheduleSet,
  {0838572c-132f-4843-8fd9-83b4d866683f}, !- Handle
  189.1-2009 - Office - Vending - CZ1-3 Schedule Set, !- Name
  ,                                       !- Hours of Operation Schedule Name
  ,                                       !- Number of People Schedule Name
  ,                                       !- People Activity Level Schedule Name
  ,                                       !- Lighting Schedule Name
  ,                                       !- Electric Equipment Schedule Name
  ,                                       !- Gas Equipment Schedule Name
  ,                                       !- Hot Water Equipment Schedule Name
  ,                                       !- Infiltration Schedule Name
  ,                                       !- Steam Equipment Schedule Name
  ;                                       !- Other Equipment Schedule Name

OS:DesignSpecification:OutdoorAir,